Circuit: *LTspice


Date: Thu Jun  6 20:51:05 2024
Total elapsed time: 0.256 seconds.

tnom = 27
temp = 27
method = trap
totiter = 34005
traniter = 0
tranpoints = 0
accept = 0
rejected = 0
matrix size = 47
fillins = 8
solver = Normal
Avg thread counts: 1.1/0.0/1.2/1.1
Matrix Compiler1: 3.89 KB object code size  1.4/0.9/[0.5]
Matrix Compiler2: 4.41 KB object code size  0.5/0.8/[0.5]

